

;;____________________________________________________________________________________________________
[TITLE]
;;工程标题/注释

;;____________________________________________________________________________________________________
[OPTIONS]
FLOW_UNITS           CFS
INFILTRATION         HORTON
FLOW_ROUTING         KINWAVE
LINK_OFFSETS         DEPTH
MIN_SLOPE            0
ALLOW_PONDING        NO
SKIP_STEADY_STATE    NO
START_DATE           03/28/2025
START_TIME           00:00:00
REPORT_START_DATE    03/28/2025
REPORT_START_TIME    00:00:00
END_DATE             03/28/2025
END_TIME             06:00:00
SWEEP_START          1/1
SWEEP_END            12/31
DRY_DAYS             0
REPORT_STEP          00:15:00
WET_STEP             00:05:00
DRY_STEP             01:00:00
ROUTING_STEP         0:00:30
INERTIAL_DAMPING     PARTIAL
NORMAL_FLOW_LIMITED  BOTH
FORCE_MAIN_EQUATION  H-W
VARIABLE_STEP        0.75
LENGTHENING_STEP     0
MIN_SURFAREA         0
MAX_TRIALS           0
HEAD_TOLERANCE       0
SYS_FLOW_TOL         5
LAT_FLOW_TOL         5
MINIMUM_STEP         0.5
THREADS              1

;;____________________________________________________________________________________________________
[EVAPORATION]
;;蒸发数据      参数
;;-------------- ----------------
CONSTANT         0.0
DRY_ONLY         NO

;;____________________________________________________________________________________________________
[JUNCTIONS]
节点3 310.1869 0 0 0 0
节点2 313.1845 40 0 0 0
2 319.75 23 23 0 32

;;____________________________________________________________________________________________________
[OUTFALLS]
;;排放口        内底     类型       水位数据       Gated    Route To        
;;-------------- ---------- ---------- ---------------- -------- ----------------
1                0          FREE                        NO

;;____________________________________________________________________________________________________
[CONDUITS]
渠道3 节点3 1 400 0.01 0 0 0
渠道2 节点2 节点3 400 0.01 0 0 0
2 2 节点2 40 0.01 0 0 0


;;____________________________________________________________________________________________________
[XSECTIONS]
;;管段           Shape        Geom1            Geom2      Geom3      Geom4      Barrels   
;;-------------- ------------ ---------------- ---------- ---------- ---------- ---------- ----------
渠道1              CIRCULAR     1                0          0          0          1                    
渠道2              CIRCULAR     1                0          0          0          1                    
渠道3              CIRCULAR     1                0          0          0          1

;;____________________________________________________________________________________________________
[REPORT]
;;报告选项
INPUT      NO
CONTROLS   NO
SUBCATCHMENTS ALL
NODES ALL
LINKS ALL

;;____________________________________________________________________________________________________
[MAP]
DIMENSIONS 0.000 0.000 10000.000 10000.000
Units      None

;;____________________________________________________________________________________________________
[COORDINATES]
1 379784.614 3267992.050
节点3 380480.164 3269402.129
节点2 380876.676 3273364.157
2 379650.108 3275560.690


;;____________________________________________________________________________________________________
[VERTICES]
;;Link           X-Coord            Y-Coord           
;;-------------- ------------------ ------------------