[TITLE]
;;工程标题/注释

[OPTIONS]
;;选项             数值
FLOW_UNITS           CMS
INFILTRATION         HORTON
FLOW_ROUTING         KINWAVE
LINK_OFFSETS         DEPTH
MIN_SLOPE            0
ALLOW_PONDING        NO
SKIP_STEADY_STATE    NO

START_DATE           03/28/2025
START_TIME           12:00:00
REPORT_START_DATE    03/28/2025
REPORT_START_TIME    00:00:00
END_DATE             03/29/2025
END_TIME             12:00:00
SWEEP_START          01/01
SWEEP_END            12/31
DRY_DAYS             0
REPORT_STEP          00:15:00
WET_STEP             00:05:00
DRY_STEP             01:00:00
ROUTING_STEP         0:00:30 

INERTIAL_DAMPING     PARTIAL
NORMAL_FLOW_LIMITED  BOTH
FORCE_MAIN_EQUATION  H-W
VARIABLE_STEP        0.75
LENGTHENING_STEP     0
MIN_SURFAREA         1.14
MAX_TRIALS           8
HEAD_TOLERANCE       0.0015
SYS_FLOW_TOL         5
LAT_FLOW_TOL         5
MINIMUM_STEP         0.5
THREADS              1

[EVAPORATION]
;;蒸发数据      参数
;;-------------- ----------------
CONSTANT         0.0
DRY_ONLY         NO

[SUBCATCHMENTS]
;;子汇水面积   雨量计        出水口           面积     不渗透百分比(%)  宽度    坡度(%)   边石长  雪堆       
;;-------------- ---------------- ---------------- -------- -------- -------- -------- -------- ----------------
1                *                *                5        25       500      0.5      0                        

[SUBAREAS]
;;子汇水面积   不渗透N   渗透N     不渗透S   渗透S     PctZero    RouteTo    PctRouted 
;;-------------- ---------- ---------- ---------- ---------- ---------- ---------- ----------
1                0.01       0.1        0.05       0.05       25         OUTLET    

[INFILTRATION]
;;子汇水面积   MaxRate    MinRate    Decay      DryTime    MaxInfil  
;;-------------- ---------- ---------- ---------- ---------- ----------
1                3.0        0.5        4          7          0         

[JUNCTIONS]
;;汇接点       Invert     MaxDepth   InitDepth  SurDepth   Aponded   
;;-------------- ---------- ---------- ---------- ---------- ----------
节点4              310.18     0          0          0          0         
节点5              328.32     0          0          0          0         
节点6              319.39     0          0          0          0         
节点7              313.24     0          0          0          0         
节点1              322.13     0          0          0          0         
节点3              313.65     0          0          0          0         
节点2              314.17     0          0          0          0         

[OUTFALLS]
;;排放口        内底     类型       水位数据       Gated    Route To        
;;-------------- ---------- ---------- ---------------- -------- ----------------
出口1              309.12     FIXED      3                NO                       

[CONDUITS]
;;管渠        From Node        To Node          Length     Roughness  InOffset   OutOffset  InitFlow   MaxFlow   
;;-------------- ---------------- ---------------- ---------- ---------- ---------- ---------- ---------- ----------
渠道1              节点1              节点2              1902.57    0.1        0          0          0          0         
渠道4              节点5              节点6              3578.46    0.01       0          0          0          0         
渠道5              节点6              节点7              2173.68    0.01       0          0          0          0         
渠道3              节点3              节点4              100        0.01       0          0          0          0         
渠道7              节点4              出口1              2819.62    0.01       0          0          0          0         
渠道2              节点2              节点3              3877.11    0.01       0          0          0          0         
渠道6              节点7              节点4              100        0.01       0          0          0          0         

[XSECTIONS]
;;管段           Shape        Geom1            Geom2      Geom3      Geom4      Barrels   
;;-------------- ------------ ---------------- ---------- ---------- ---------- ---------- ----------
渠道1              IRREGULAR    断面3              0          0          0          1                    
渠道4              CIRCULAR     10               0          0          0          1                    
渠道5              TRAPEZOIDAL  10               20         0.5        0.5        1                    
渠道3              TRAPEZOIDAL  10               100        0.5        0.5        1                    
渠道7              TRAPEZOIDAL  10               100        0.5        0.5        1                    
渠道2              IRREGULAR    断面1              0          0          0          1                    
渠道6              TRAPEZOIDAL  10               20         0.5        0.5        1                    

[TRANSECTS]
;;Transect Data in HEC-2 format
;
NC 0.01     0.01     0.01    
X1 断面2               21       8.0      15.0     0.0      0.0      0        0.0      0.0     
GR 316.48   1.0      295.0    2.0      316.92   3.0      316.83   4.0      314.49   5.0     
GR 311.2    6.0      311.2    7.0      311.2    8.0      311.2    9.0      311.2    10.0    
GR 311.2    11.0     311.2    12.0     311.2    13.0     311.2    14.0     311.2    15.0    
GR 321.55   16.0     327.47   17.0     330.59   18.0     332.22   19.0     334.15   20.0    
GR 335.66   21.0    
;
NC 0.1      0.1      0.1     
X1 断面_12             21       5.0      15.0     0.0      0.0      0        0.0      0.0     
GR 323.51   1.0      321.58   2.0      321.94   3.0      320.87   4.0      319.94   5.0     
GR 318.4    6.0      315.83   7.0      315.72   8.0      314.72   9.0      314.31   10.0    
GR 314.31   11.0     314.31   12.0     314.31   13.0     314.32   14.0     314.32   15.0    
GR 332.86   16.0     345.4    17.0     353.31   18.0     356.31   19.0     355.35   20.0    
GR 354.7    21.0    
;
NC 0.01     0.01     0.01    
X1 断面1               9        3.0      8.0      0.0      0.0      0        0.0      0.0     
GR 8.0      1.0      6.0      2.0      4.0      3.0      1.0      4.0      2.0      5.0     
GR 3.0      6.0      4.0      7.0      4.0      8.0      9.0      11.0    
;
NC 0.1      0.1      0.1     
X1 断面3               21       5.0      15.0     0.0      0.0      0        0.0      0.0     
GR 326.59   1.0      327.78   2.0      325.97   3.0      318.5    4.0      310.75   5.0     
GR 310.54   6.0      310.84   7.0      310.68   8.0      310.4    9.0      300.52   10.0    
GR 300.57   11.0     300.62   12.0     302.75   13.0     306.43   14.0     309.0    15.0    
GR 315.96   16.0     316.43   17.0     320.92   18.0     320.96   19.0     320.58   20.0    
GR 321.87   21.0    

[INFLOWS]
;;节点           Inflow           Time Series      Type     Funits   Fscale   Baseline Pattern
;;-------------- ---------------- ---------------- -------- -------- -------- -------- --------
节点1              FLOW             时间2              FLOW     1.0      1        0       

[TIMESERIES]
;;时间序列    Date       Time       Value     
;;-------------- ---------- ---------- ----------
时间2              03/28/2025 12:00:00   10.0      
时间2              03/28/2025 14:21:00   40.0      
时间2              03/28/2025 15:40:00   60.0      
时间2              03/28/2025 15:41:00   10.0      
时间2              03/28/2025 17:21:00   12.0      
时间2              03/28/2025 18:00:00   12.0      
时间2              03/28/2025 19:00:00   20.0      
时间2              03/28/2025 20:00:00   30.0      
时间2              03/28/2025 21:00:00   10.0      
时间2              03/28/2025 22:00:00   12.0      
时间2              03/28/2025 23:00:00   13.0      
;
时间1              04/09/2025 15:13:39   10.0      
;
时间_1744191770120 04/09/2025 17:42:50   10.0      
;
时间_1744346795581 04/11/2025 12:46:35   10.0      

[REPORT]
;;报告选项
INPUT      NO
CONTROLS   NO
SUBCATCHMENTS ALL
NODES ALL
LINKS ALL

[TAGS]

[MAP]
DIMENSIONS 0.000 0.000 10000.000 10000.000
Units      None

[COORDINATES]
;;Node           X-Coord            Y-Coord           
;;-------------- ------------------ ------------------
节点4              380433.375         3269518.098       
节点5              374364.831         3273146.986       
节点6              375898.004         3269914.642       
节点7              378066.898         3270049.761       
节点1              379456.946         3276407.675       
节点3              380998.732         3272685.557       
节点2              379997.376         3275153.079       
出口1              380464.572         3266699.414       

[VERTICES]
;;Link           X-Coord            Y-Coord           
;;-------------- ------------------ ------------------

[Polygons]
;;Subcatchment   X-Coord            Y-Coord           
;;-------------- ------------------ ------------------
1                382080.177         3272640.144       
1                383300.834         3272299.769       
1                383688.158         3271560.332       
1                384709.285         3272241.083       
1                383289.097         3273602.586       
1                382138.862         3273379.581       


[PROFILES]
;;名称           Links     
;;-------------- ----------
"                " 管道_1743666474738 渠道1 管道_1743558834052
