

;;____________________________________________________________________________________________________
[TITLE]
;;工程标题/注释

;;____________________________________________________________________________________________________
[OPTIONS]
FLOW_UNITS           CMS
INFILTRATION         HORTON
FLOW_ROUTING         KINWAVE
LINK_OFFSETS         DEPTH
MIN_SLOPE            0
ALLOW_PONDING        NO
SKIP_STEADY_STATE    NO
START_DATE           03/28/2025
START_TIME           00:00:00
REPORT_START_DATE    03/28/2025
REPORT_START_TIME    00:00:00
END_DATE             03/29/2025
END_TIME             00:00:00
SWEEP_START          01/01
SWEEP_END            12/31
DRY_DAYS             0
REPORT_STEP          00:15:00
WET_STEP             00:05:00
DRY_STEP             01:00:00
ROUTING_STEP         0:00:30
INERTIAL_DAMPING     PARTIAL
NORMAL_FLOW_LIMITED  BOTH
FORCE_MAIN_EQUATION  H-W
VARIABLE_STEP        0.75
LENGTHENING_STEP     0
MIN_SURFAREA         1.14
MAX_TRIALS           8
HEAD_TOLERANCE       0.0015
SYS_FLOW_TOL         5
LAT_FLOW_TOL         5
MINIMUM_STEP         0.5
THREADS              1

;;____________________________________________________________________________________________________
[EVAPORATION]
;;蒸发数据      参数
;;-------------- ----------------
CONSTANT         0.0
DRY_ONLY         NO

;;____________________________________________________________________________________________________
[JUNCTIONS]
节点3 313.65 0 0 0 0
节点4 310.18 0 0 0 0
节点5 328.32 0 0 0 0
节点6 319.39 0 0 0 0
节点7 313.24 0 0 0 0
节点2 316.08 0 0 0 0
节点1 322.13 0 0 0 0


;;____________________________________________________________________________________________________
[OUTFALLS]
出口1 309.12 FIXED 3 NO


;;____________________________________________________________________________________________________
[CONDUITS]
渠道1 节点1 节点2 1902.57 0.1 0 0 0
渠道4 节点5 节点6 3578.46 0.01 0 0 0
渠道5 节点6 节点7 2173.68 0.01 0 0 0
渠道6 节点7 节点4 100 0.01 0 0 0
渠道3 节点3 节点4 100 0.01 0 0 0
渠道7 节点4 出口1 2819.62 0.01 0 0 0
渠道2 节点2 节点3 3877.11 0.01 0 0 0


;;____________________________________________________________________________________________________
[XSECTIONS]
渠道1 IRREGULAR 断面3 0 1 1
渠道4 CIRCULAR 10 0 0 0 1
渠道5 TRAPEZOIDAL 10 20 0.5 0.5 1
渠道6 TRAPEZOIDAL 10 20 0.5 0.5 1
渠道3 TRAPEZOIDAL 10 100 0.5 0.5 1
渠道7 TRAPEZOIDAL 10 100 0.5 0.5 1
渠道2 IRREGULAR 断面1 0 1 1

;;____________________________________________________________________________________________________
[TRANSECTS]
NC 0.01 0.01 0.01
X1 断面2 21 8.0 15.0 0 0 0 0.0 0.0 0.0
GR 316.48 1.0
GR 295.0 2.0
GR 316.92 3.0
GR 316.83 4.0
GR 314.49 5.0
GR 311.2 6.0
GR 311.2 7.0
GR 311.2 8.0
GR 311.2 9.0
GR 311.2 10.0
GR 311.2 11.0
GR 311.2 12.0
GR 311.2 13.0
GR 311.2 14.0
GR 311.2 15.0
GR 321.55 16.0
GR 327.47 17.0
GR 330.59 18.0
GR 332.22 19.0
GR 334.15 20.0
GR 335.66 21.0


NC 0.1 0.1 0.1
X1 断面_12 21 5.0 15.0 0 0 0 0.0 0.0 0.0
GR 323.51 1.0
GR 321.58 2.0
GR 321.94 3.0
GR 320.87 4.0
GR 319.94 5.0
GR 318.4 6.0
GR 315.83 7.0
GR 315.72 8.0
GR 314.72 9.0
GR 314.31 10.0
GR 314.31 11.0
GR 314.31 12.0
GR 314.31 13.0
GR 314.32 14.0
GR 314.32 15.0
GR 332.86 16.0
GR 345.4 17.0
GR 353.31 18.0
GR 356.31 19.0
GR 355.35 20.0
GR 354.7 21.0


NC 0.01 0.01 0.01
X1 断面1 9 3.0 8.0 0 0 0 0.0 0.0 0.0
GR 8.0 1.0
GR 6.0 2.0
GR 4.0 3.0
GR 1.0 4.0
GR 2.0 5.0
GR 3.0 6.0
GR 4.0 7.0
GR 4.0 8.0
GR 9.0 11.0


NC 0.1 0.1 0.1
X1 断面3 21 5.0 15.0 0 0 0 0.0 0.0 0.0
GR 326.59 1.0
GR 327.78 2.0
GR 325.97 3.0
GR 318.5 4.0
GR 310.75 5.0
GR 310.54 6.0
GR 310.84 7.0
GR 310.68 8.0
GR 310.4 9.0
GR 300.52 10.0
GR 300.57 11.0
GR 300.62 12.0
GR 302.75 13.0
GR 306.43 14.0
GR 309.0 15.0
GR 315.96 16.0
GR 316.43 17.0
GR 320.92 18.0
GR 320.96 19.0
GR 320.58 20.0
GR 321.87 21.0

;;____________________________________________________________________________________________________
[INFLOWS]
节点1 FLOW 时间2 FLOW 1 1 0


;;____________________________________________________________________________________________________
[TIMESERIES]
时间2 03/28/2025 12:00:00 10.0
时间2 03/28/2025 14:21:00 40.0
时间2 03/28/2025 15:40:00 60.0
时间2 03/28/2025 15:41:00 10.0
时间2 03/28/2025 17:21:00 12.0
时间2 03/28/2025 18:00:00 12.0
时间2 03/28/2025 19:00:00 20.0
时间2 03/28/2025 20:00:00 30.0
时间2 03/28/2025 21:00:00 10.0
时间2 03/28/2025 22:00:00 12.0
时间2 03/28/2025 23:00:00 13.0

时间1 04/09/2025 15:13:39 10.0

时间_1744191770120 04/09/2025 17:42:50 10.0



;;____________________________________________________________________________________________________
[REPORT]
;;报告选项
INPUT      NO
CONTROLS   NO
SUBCATCHMENTS ALL
NODES ALL
LINKS ALL

;;____________________________________________________________________________________________________
[MAP]
DIMENSIONS 0.000 0.000 10000.000 10000.000
Units      None

;;____________________________________________________________________________________________________
[COORDINATES]
节点3 380998.732 3272685.557
节点4 380433.375 3269518.098
节点5 374364.831 3273146.986
节点6 375898.004 3269914.642
节点7 378066.898 3270049.761
节点2 379997.376 3275153.079
出口1 380464.572 3266699.414
节点1 379456.946 3276407.675


;;____________________________________________________________________________________________________
[VERTICES]
;;Link           X-Coord            Y-Coord           
;;-------------- ------------------ ------------------

;;____________________________________________________________________________________________________
[PROFILES]
;;名称           Links     
;;-------------- ----------
"                " 管道_1743666474738 渠道1 管道_1743558834052