

;;____________________________________________________________________________________________________
[TITLE]
;;工程标题/注释

;;____________________________________________________________________________________________________
[OPTIONS]
FLOW_UNITS           CFS
INFILTRATION         HORTON
FLOW_ROUTING         KINWAVE
LINK_OFFSETS         DEPTH
MIN_SLOPE            0
ALLOW_PONDING        NO
SKIP_STEADY_STATE    NO
START_DATE           03/28/2025
START_TIME           00:00:00
REPORT_START_DATE    03/28/2025
REPORT_START_TIME    00:00:00
END_DATE             03/28/2025
END_TIME             06:00:00
SWEEP_START          1/1
SWEEP_END            12/31
DRY_DAYS             0
REPORT_STEP          00:15:00
WET_STEP             00:05:00
DRY_STEP             01:00:00
ROUTING_STEP         0:00:30
INERTIAL_DAMPING     PARTIAL
NORMAL_FLOW_LIMITED  BOTH
FORCE_MAIN_EQUATION  H-W
VARIABLE_STEP        0.75
LENGTHENING_STEP     0
MIN_SURFAREA         0
MAX_TRIALS           0
HEAD_TOLERANCE       0
SYS_FLOW_TOL         5
LAT_FLOW_TOL         5
MINIMUM_STEP         0.5
THREADS              1

;;____________________________________________________________________________________________________
[EVAPORATION]
;;蒸发数据      参数
;;-------------- ----------------
CONSTANT         0.0
DRY_ONLY         NO

;;____________________________________________________________________________________________________
[JUNCTIONS]
节点1 30 0 0 0 0
节点2 20 0 0 0 0
节点_1743348561606 354.6506 0 0 0 0
节点_1743348619206 315.7391 0 0 0 0
节点_17 347.5323 0 0 0 0
节点_1743423448404 323.9216 0 0 0 0
节点_1743423472677 345.4462 0 0 0 0
节点_1743423504170 328.3564 0 0 0 0
节点_1743423510871 327.6901 0 0 0 0
节点_1743423517516 342.7184 0 0 0 0
节点_1743423525783 353.6162 0 0 0 0
节点_1743423586855 307.8094 0 0 0 0
节点_1743423607001 393.1667 0 0 0 0
节点_1743424064294 371.5281 0 0 0 0
节点_1743424108657 377.4458 0 0 0 0
节点_1743424192670 318.9245 0 0 0 0
节点_1743434024457 339.6223 0 0 0 0
节点_1743423483526 356.3008 0 0 0 0
节点_1743423815351 377.6959 0 0 0 0
节点3 0 0 0 0 0
节点_1743423673774 359.509 0 0 0 0
节点_1743424105740 363.6648 0 0 0 0
节点_1743435981876 322.6231 0 0 0 0

;;____________________________________________________________________________________________________
[OUTFALLS]
出口_1743423459566 339.3849 FREE NO
出口_1743424075684 363.2108 FREE NO
出口_1743424083065 357.9232 FREE NO
出口_1743424198032 361.362 FREE NO

;;____________________________________________________________________________________________________
[CONDUITS]
管道_1743423456826 节点_17 节点_1743348619206 100 0.01 0 0 0
渠道1 节点1 节点2 800 0.01 0 0 0
管道_1743424073219 节点_1743424064294 节点2 100 0.01 0 0 0
渠道2 节点2 节点3 400 0.01 0 0 0
管道_1743423553981 节点_1743348561606 节点_1743423472677 100 0.01 0 0 0
管道_1743434034996 节点_1743434024457 节点_1743423517516 100 0.01 0 0 0
管道_1743435968047 节点_1743423472677 节点2 100 0.01 0 0 0
管道_1743435986220 节点_1743435981876 节点_1743348619206 100 0.01 0 0 0


;;____________________________________________________________________________________________________
[XSECTIONS]
管道_1743423456826 TRAPEZOIDAL 10 20 0.5 0.5 1
渠道1 TRAPEZOIDAL 20 40 0.1 0.1 1
管道_1743424073219 TRAPEZOIDAL 10 20 0.5 0.5 1
渠道2 TRAPEZOIDAL 30.1 55.5 0.2 0.3 1
管道_1743423553981 TRAPEZOIDAL 10 20 0.5 0.5 1
管道_1743434034996 TRAPEZOIDAL 10 20 0.5 0.5 1
管道_1743435968047 TRAPEZOIDAL 10 20 0.5 0.5 1
管道_1743435986220 TRAPEZOIDAL 10 20 0.5 0.5 1


;;____________________________________________________________________________________________________
[TIMESERIES]
;;时间序列    Date       Time       Value     
;;-------------- ---------- ---------- ----------
时间1              12/1/2000  12:00      100       
时间1              12/1/2000  13:00      150       
时间1              12/1/2000  14:00      260

;;____________________________________________________________________________________________________
[REPORT]
;;报告选项
INPUT      NO
CONTROLS   NO
SUBCATCHMENTS ALL
NODES ALL
LINKS ALL

;;____________________________________________________________________________________________________
[MAP]
DIMENSIONS 0.000 0.000 10000.000 10000.000
Units      None

;;____________________________________________________________________________________________________
[COORDINATES]
节点1 379424.108 3276218.951
节点2 380920.125 3272693.464
节点_1743348561606 373149.694 3273795.395
节点_1743348619206 376349.086 3270025.300
节点_17 375368.541 3271335.665
节点_1743423448404 376593.089 3267740.611
出口_1743423459566 375264.154 3268069.118
节点_1743423472677 375497.376 3274547.493
节点_1743423504170 374429.217 3266363.365
节点_1743423510871 371289.068 3267882.523
节点_1743423517516 375491.130 3280066.432
节点_1743423525783 382235.634 3278229.890
节点_1743423586855 379691.409 3262460.731
节点_1743423607001 376323.477 3265143.291
节点_1743424064294 385239.064 3271070.235
出口_1743424075684 371383.013 3264892.580
出口_1743424083065 374733.136 3264285.674
节点_1743424108657 370458.588 3261388.515
节点_1743424192670 377852.606 3259462.475
出口_1743424198032 373977.810 3259884.886
节点_1743434024457 374252.635 3277346.441
节点_1743423483526 378033.124 3272204.848
节点_1743423815351 387587.973 3273121.736
节点3 380701.415 3269832.765
节点_1743423673774 383861.789 3265879.345
节点_1743424105740 383992.727 3267522.421
节点_1743435981876 379043.664 3266790.606


;;____________________________________________________________________________________________________
[VERTICES]
;;Link           X-Coord            Y-Coord           
;;-------------- ------------------ ------------------