

;;____________________________________________________________________________________________________
[OPTIONS]
FLOW_UNITS         CMS
REPORT_STEP        01:00:00
FLOW_ROUTING       DYNWAVE
START_DATE         12/01/2025
START_TIME         00:00:00
END_DATE           12/05/2025
END_TIME           06:00:00
REPORT_START_DATE  12/04/2025
REPORT_START_TIME  00:00:00

;;____________________________________________________________________________________________________
[REPORT]
INPUT          YES
CONTINUITY     YES
FLOWSTATS      YES
CONTROLS       NO
SUBCATCHMENTS  ALL
NODES          ALL
LINKS          ALL


;;____________________________________________________________________________________________________
[JUNCTIONS]
J5 750 9999 0 9999 0
J7 765 9999 0 9999 0
J10 748 9999 0 9999 0
J20 753 9999 0 9999 0
J18 760 9999 0 9999 0
J3 756 9999 0 9999 0
J11 761 9999 0 9999 0
J2 752 9999 0 9999 0
J15 747 9999 0 9999 0
J6 809 9999 0 9999 0
J14 750 9999 0 9999 0
J16 776 9999 0 9999 0
J9 749 9999 0 9999 0
J8 759 9999 0 9999 0
J21 746 9999 0 9999 0
J13 754 9999 0 9999 0
J17 766 9999 0 9999 0
J1 755 9999 0 9999 0
J4 751 9999 0 9999 0
J12 758 9999 0 9999 0
J19 755 9999 0 9999 0
J22 744 9999 0 9999 0


;;____________________________________________________________________________________________________
[OUTFALLS]
乌江渡 744 FREE NO


;;____________________________________________________________________________________________________
[INFLOWS]
J3 FLOW INFLOW_流量2 FLOW 1 1 0
J11 FLOW INFLOW_流量2 FLOW 1 1 0
J6 FLOW INFLOW_流量2 FLOW 1 1 0
J16 FLOW INFLOW_流量2 FLOW 1 1 0
J1 FLOW INFLOW_流量1 FLOW 1 1 0


;;____________________________________________________________________________________________________
[CONDUITS]
C6 J6 J7 563.4731 0.03 0 0 0
C19 J19 J20 1181.997 0.03 0 0 0
C7 J7 J8 1313.893 0.03 0 0 0
C4 J4 J5 2920.678 0.03 0 0 0
C5 J5 J9 2094.957 0.03 0 0 0
C14 J14 J15 979.232 0.03 0 0 0
C12 J12 J13 1355.527 0.03 0 0 0
C15 J15 J21 2863.384 0.03 0 0 0
C11 J11 J12 684.319 0.04 0 0 0
C13 J13 J14 846.0632 0.03 0 0 0
C20 J20 J21 550.8517 0.03 0 0 0
C1 J1 J2 2297.501 0.03 0 0 0
C2 J2 J4 3629.891 0.03 0 0 0
C9 J9 J10 3455.023 0.03 0 0 0
C22 J22 乌江渡 2656.255 0.03 0 0 0
C3 J3 J4 956.2417 0.03 0 0 0
C8 J8 J9 871.0774 0.03 0 0 0
C10 J10 J15 2591.806 0.03 0 0 0
C21 J21 J22 2827.864 0.03 0 0 0
C18 J18 J19 1067.575 0.03 0 0 0
C17 J17 J18 1582.656 0.03 0 0 0
C16 J16 J17 1200.158 0.03 0 0 0


;;____________________________________________________________________________________________________
[XSECTIONS]
C6 IRREGULAR 断面18 0.5 0.5 1
C19 IRREGULAR 断面18 0.5 0.5 1
C7 IRREGULAR 断面18 0.5 0.5 1
C4 IRREGULAR 断面18 0.5 0.5 1
C5 IRREGULAR 断面18 0.5 0.5 1
C14 IRREGULAR 断面18 0.5 0.5 1
C12 IRREGULAR 断面18 0.5 0.5 1
C15 IRREGULAR 断面18 0.5 0.5 1
C11 IRREGULAR 断面18 0.5 0.5 1
C13 IRREGULAR 断面18 0.5 0.5 1
C20 IRREGULAR 断面18 0.5 0.5 1
C1 IRREGULAR 断面18 0.5 0.5 1
C2 IRREGULAR 断面18 0.5 0.5 1
C9 IRREGULAR 断面18 0.5 0.5 1
C22 IRREGULAR 断面18 0.5 0.5 1
C3 IRREGULAR 断面18 0.5 0.5 1
C8 IRREGULAR 断面18 0.5 0.5 1
C10 IRREGULAR 断面18 0.5 0.5 1
C21 IRREGULAR 断面18 0.5 0.5 1
C18 IRREGULAR 断面18 0.5 0.5 1
C17 IRREGULAR 断面18 0.5 0.5 1
C16 IRREGULAR 断面18 0.5 0.5 1


;;____________________________________________________________________________________________________
[TRANSECTS]
NC 0.03 0.04 0.04
X1 断面18 21 176.89 566.04 0 0 0 0.0 0.0 0.0
GR 948.0 0.0
GR 832.0 35.38
GR 832.0 70.75
GR 832.0 106.13
GR 832.0 141.51
GR 749.0 176.89
GR 749.0 212.26
GR 749.0 247.64
GR 749.0 283.02
GR 752.0 318.4
GR 752.0 353.77
GR 752.0 389.15
GR 752.0 424.53
GR 752.0 459.9
GR 754.0 495.28
GR 754.0 530.66
GR 754.0 566.04
GR 827.0 601.41
GR 827.0 636.79
GR 827.0 672.17
GR 827.0 707.54




;;____________________________________________________________________________________________________
[TIMESERIES]
INFLOW_流量2 11/01/2025 00:00:00 100
INFLOW_流量2 12/04/2025 05:00:00 100
INFLOW_流量2 12/04/2025 06:00:00 100
INFLOW_流量2 12/04/2025 07:00:00 100
INFLOW_流量2 12/04/2025 08:00:00 100
INFLOW_流量2 12/04/2025 09:00:00 100
INFLOW_流量2 12/07/2025 23:00:00 100

INFLOW_流量1 12/01/2025 00:00:00 1000
INFLOW_流量1 12/04/2025 02:00:00 1000
INFLOW_流量1 12/04/2025 03:00:00 1300
INFLOW_流量1 12/04/2025 04:00:00 1300
INFLOW_流量1 12/04/2025 05:00:00 1400
INFLOW_流量1 12/04/2025 06:00:00 1600
INFLOW_流量1 12/04/2025 07:00:00 1500
INFLOW_流量1 12/04/2025 08:00:00 1400
INFLOW_流量1 12/04/2025 09:00:00 1300
INFLOW_流量1 12/04/2025 10:00:00 1250
INFLOW_流量1 12/04/2025 11:00:00 1200
INFLOW_流量1 12/04/2025 12:00:00 1150
INFLOW_流量1 12/04/2025 13:00:00 1000
INFLOW_流量1 12/07/2025 23:00:00 1000

RAINGAGE_雨量1 12/11/2025 00:00:00 10



;;____________________________________________________________________________________________________
[RAINGAGES]
RAINGAGE_雨量1 INTENSITY 1:00 1 TIMESERIES RAINGAGE_雨量1


;;____________________________________________________________________________________________________
[SUBCATCHMENTS]
S2 RAINGAGE_雨量1 J3 1.16835E+07 25 1863 0.5 0
S6 RAINGAGE_雨量1 J20 2.361377E+07 25 3524 0.5 0
S3 RAINGAGE_雨量1 J5 4.103599E+07 25 5791 0.5 0
S4 RAINGAGE_雨量1 J15 3.033199E+07 25 4404 0.5 0
S1 RAINGAGE_雨量1 J2 6.202462E+07 25 6266 0.5 0
S5 RAINGAGE_雨量1 J14 2.200337E+07 25 3742 0.5 0


;;____________________________________________________________________________________________________
[SUBAREAS]
S2 0.01 0.1 1 1 25 OUTLET 100
S6 0.01 0.1 1 1 25 OUTLET 100
S3 0.01 0.1 1 1 25 OUTLET 100
S4 0.01 0.1 1 1 25 OUTLET 100
S1 0.01 0.1 1 1 25 OUTLET 100
S5 0.01 0.1 1 1 25 OUTLET 100


;;____________________________________________________________________________________________________
[INFILTRATION]
S2 3 0.5 4 7 0
S6 3 0.5 4 7 0
S3 3 0.5 4 7 0
S4 3 0.5 4 7 0
S1 3 0.5 4 7 0
S5 3 0.5 4 7 0


;;____________________________________________________________________________________________________
[POLYGONS]
S2  656068.942 3014238.053
S2  653593.923 3013666.179
S2  652164.898 3012346.616
S2  651316.717 3012184.104
S2  653925.061 3010271.497
S2  656470.481 3012062.139
S2  656815.336 3013030.280
S2  656068.942 3014238.053
S6  670330.502 3030484.027
S6  672355.074 3028992.351
S6  672852.860 3024979.121
S6  673040.760 3023696.730
S6  670668.194 3023258.119
S6  669883.107 3023517.679
S6  668906.788 3025328.833
S6  668078.733 3026263.539
S6  669560.204 3029695.473
S6  670330.502 3030484.027
S3  664646.637 3013577.174
S3  660303.335 3012843.865
S3  658632.055 3013228.138
S3  658165.901 3015115.860
S3  658798.354 3016171.963
S3  660116.658 3016763.702
S3  661741.563 3019894.790
S3  663536.362 3020391.561
S3  666248.977 3020867.117
S3  666321.106 3018028.762
S3  664948.793 3016421.478
S3  664646.637 3013577.174
S4  663942.767 3021776.979
S4  662357.763 3022144.656
S4  661272.700 3023262.469
S4  660595.043 3024419.347
S4  661048.177 3026148.229
S4  662882.533 3027439.108
S4  665433.049 3027219.756
S4  666585.046 3027437.946
S4  666600.335 3026306.421
S4  667007.607 3025078.803
S4  668161.281 3023945.670
S4  668398.168 3022766.188
S4  666508.938 3023010.952
S4  665311.437 3022352.821
S4  663942.767 3021776.979
S1  657332.742 3023145.482
S1  653516.041 3021306.497
S1  649948.292 3018474.444
S1  649410.993 3016524.251
S1  649064.872 3012800.804
S1  650262.840 3012155.886
S1  651826.802 3013578.254
S1  653304.305 3015084.204
S1  655655.457 3016026.453
S1  657914.645 3017491.890
S1  659787.429 3019882.011
S1  660546.587 3021615.473
S1  658748.056 3022741.198
S1  658107.370 3023679.053
S1  657596.489 3023773.909
S1  657332.742 3023145.482
S5  667566.924 3013886.806
S5  670883.450 3017516.256
S5  672769.003 3021260.737
S5  670892.599 3021775.419
S5  668485.662 3021336.783
S5  668007.186 3019031.901
S5  667344.650 3015236.478
S5  666752.372 3013774.426
S5  667566.924 3013886.806


;;____________________________________________________________________________________________________
[COORDINATES]
J5 659673.055 3018208.386
J7 659634.405 3022516.264
J10 664425.906 3021226.038
J20 669061.945 3023926.627
J18 667142.166 3026434.447
J3 657528.421 3013109.400
J11 665631.294 3013687.658
J2 653954.815 3014721.382
J15 666706.474 3022221.896
J6 659165.511 3023304.297
J14 667204.243 3019338.889
J16 669235.383 3031091.093
J9 661352.115 3021086.262
J8 660780.302 3023241.561
J21 669256.349 3022138.292
J13 666829.708 3016865.233
J17 668402.859 3028646.357
J1 651968.529 3013111.166
J4 657149.599 3016164.630
J12 665650.621 3016056.471
J19 668028.980 3024926.175
J22 671764.549 3022613.213
乌江渡 674119.711 3023085.634
