

;;____________________________________________________________________________________________________
[TITLE]
;;工程标题/注释

;;____________________________________________________________________________________________________
[OPTIONS]
FLOW_UNITS           CMS
INFILTRATION         HORTON
FLOW_ROUTING         KINWAVE
LINK_OFFSETS         DEPTH
MIN_SLOPE            0
ALLOW_PONDING        NO
SKIP_STEADY_STATE    NO
START_DATE           03/28/2025
START_TIME           00:00:00
REPORT_START_DATE    03/28/2025
REPORT_START_TIME    00:00:00
END_DATE             03/28/2025
END_TIME             06:00:00
SWEEP_START          1/1
SWEEP_END            12/31
DRY_DAYS             0
REPORT_STEP          00:15:00
WET_STEP             00:05:00
DRY_STEP             01:00:00
ROUTING_STEP         0:00:30
INERTIAL_DAMPING     PARTIAL
NORMAL_FLOW_LIMITED  BOTH
FORCE_MAIN_EQUATION  H-W
VARIABLE_STEP        0.75
LENGTHENING_STEP     0
MIN_SURFAREA         0
MAX_TRIALS           0
HEAD_TOLERANCE       0
SYS_FLOW_TOL         5
LAT_FLOW_TOL         5
MINIMUM_STEP         0.5
THREADS              1

;;____________________________________________________________________________________________________
[EVAPORATION]
;;蒸发数据      参数
;;-------------- ----------------
CONSTANT         0.0
DRY_ONLY         NO

;;____________________________________________________________________________________________________
[JUNCTIONS]
节点_1743348561606 354.6506 0 0 0 0
节点_1743423517516 342.7184 0 0 0 0
节点1 30 0 0 0 0
节点2 20 0 0 0 0
节点_1743423472677 319.016 0 0 0 0
节点_1743669443926 360.8239 0 0 0 0
节点_1743669445322 328.8128 0 0 0 0

;;____________________________________________________________________________________________________
[OUTFALLS]
出口_1743476053665 313.6188 FIXED 3 NO

;;____________________________________________________________________________________________________
[CONDUITS]
管道_1743666474738 节点_1743423517516 节点1 5512.17 0.01 0 0 0
渠道1 节点1 节点2 3830.65 0.01 0 0 0
管道_1743423553981 节点_1743348561606 节点_1743423472677 100 0.01 0 0 0
管道_1743669448257 节点_1743669443926 节点_1743669445322 100 0.01 0 0 0
管道_1743558864517 节点_1743423472677 出口_1743476053665 100 0.01 0 0 0
管道_1743558834052 节点2 出口_1743476053665 3 2 0 0 0

;;____________________________________________________________________________________________________
[XSECTIONS]
管道_1743666474738 CIRCULAR 10 1 0 0 1
渠道1 CIRCULAR 13 1 0 0 1
管道_1743423553981 CIRCULAR 1.2 1 0 0 1
管道_1743669448257 CIRCULAR 10 1 0 0 1
管道_1743558864517 CIRCULAR 12 1 0 0 1
管道_1743558834052 IRREGULAR 断面2 0 0 1


;;____________________________________________________________________________________________________
[TRANSECTS]
NC 0.01 0.01 0.01
X1 断面1 10 3.0 8.0 0 0 0 0.0 0.0 0.0
GR 8.0 1.0
GR 2.2 1.1
GR 6.0 2.0
GR 4.0 3.0
GR 1.0 4.0
GR 2.0 5.0
GR 3.0 6.0
GR 7.0 7.0
GR 10.0 8.0
GR 12.0 11.0


NC 0.01 0.01 0.01
X1 断面2 4 1.0 2.0 0 0 0 0.0 0.0 0.0
GR 3.0 1.0
GR 4.0 2.0
GR 7.0 3.0
GR 4.0 4.0




;;____________________________________________________________________________________________________
[INFLOWS]
;;节点           Inflow           Time Series      Type     Funits   Fscale   Baseline Pattern
;;-------------- ---------------- ---------------- -------- -------- -------- -------- --------
节点1              FLOW             时间序列1            FLOW     1.0      1.0      1000

;;____________________________________________________________________________________________________
[TIMESERIES]
;;时间序列    Date       Time       Value     
;;-------------- ---------- ---------- ----------
时间1              12/1/2000  12:00      100       
时间1              12/1/2000  13:00      150       
时间1              12/1/2000  14:00      260       
;
时间序列1                       12:00      123       
时间序列1                       13:00      423       
时间序列1                       14:00      123

;;____________________________________________________________________________________________________
[REPORT]
;;报告选项
INPUT      NO
CONTROLS   NO
SUBCATCHMENTS ALL
NODES ALL
LINKS ALL

;;____________________________________________________________________________________________________
[MAP]
DIMENSIONS 0.000 0.000 10000.000 10000.000
Units      None

;;____________________________________________________________________________________________________
[COORDINATES]
节点_1743348561606 373149.694 3273795.395
节点_1743423517516 375491.130 3280066.432
节点1 379424.108 3276218.951
节点2 380920.125 3272693.464
节点_1743423472677 375577.379 3270213.483
节点_1743669443926 366688.293 3275938.468
节点_1743669445322 370067.192 3273207.910
出口_1743476053665 378891.146 3269512.244

;;____________________________________________________________________________________________________
[VERTICES]
;;Link           X-Coord            Y-Coord           
;;-------------- ------------------ ------------------