[TITLE]
;;工程标题/注释

[OPTIONS]
;;选项             数值
FLOW_UNITS           CMS
INFILTRATION         HORTON
FLOW_ROUTING         KINWAVE
LINK_OFFSETS         DEPTH
MIN_SLOPE            0
ALLOW_PONDING        NO
SKIP_STEADY_STATE    NO

START_DATE           03/28/2025
START_TIME           00:00:00
REPORT_START_DATE    03/28/2025
REPORT_START_TIME    00:00:00
END_DATE             03/29/2025
END_TIME             00:00:00
SWEEP_START          01/01
SWEEP_END            12/31
DRY_DAYS             0
REPORT_STEP          00:15:00
WET_STEP             00:05:00
DRY_STEP             01:00:00
ROUTING_STEP         0:00:30 

INERTIAL_DAMPING     PARTIAL
NORMAL_FLOW_LIMITED  BOTH
FORCE_MAIN_EQUATION  H-W
VARIABLE_STEP        0.75
LENGTHENING_STEP     0
MIN_SURFAREA         1.14
MAX_TRIALS           8
HEAD_TOLERANCE       0.0015
SYS_FLOW_TOL         5
LAT_FLOW_TOL         5
MINIMUM_STEP         0.5
THREADS              1

[EVAPORATION]
;;蒸发数据      参数
;;-------------- ----------------
CONSTANT         0.0
DRY_ONLY         NO

[JUNCTIONS]
;;汇接点       Invert     MaxDepth   InitDepth  SurDepth   Aponded   
;;-------------- ---------- ---------- ---------- ---------- ----------
节点3              313.65     0          0          0          0         
节点4              310.18     0          0          0          0         
节点5              328.32     0          0          0          0         
节点6              319.39     0          0          0          0         
节点7              313.24     0          0          0          0         
节点2              316.08     0          0          0          0         
节点1              322.13     0          0          0          0         

[OUTFALLS]
;;排放口        内底     类型       水位数据       Gated    Route To        
;;-------------- ---------- ---------- ---------------- -------- ----------------
出口1              309.12     FIXED      3                NO                       

[CONDUITS]
;;管渠        From Node        To Node          Length     Roughness  InOffset   OutOffset  InitFlow   MaxFlow   
;;-------------- ---------------- ---------------- ---------- ---------- ---------- ---------- ---------- ----------
渠道2              节点2              节点3              3877.11    0.01       0          0          0          0         
渠道1              节点1              节点2              1902.57    0.1        0          0          0          0         
渠道4              节点5              节点6              3578.46    0.01       0          0          0          0         
渠道5              节点6              节点7              2173.68    0.01       0          0          0          0         
渠道6              节点7              节点4              100        0.01       0          0          0          0         
渠道3              节点3              节点4              100        0.01       0          0          0          0         
渠道7              节点4              出口1              2819.62    0.01       0          0          0          0         

[XSECTIONS]
;;管段           Shape        Geom1            Geom2      Geom3      Geom4      Barrels   
;;-------------- ------------ ---------------- ---------- ---------- ---------- ---------- ----------
渠道2              CIRCULAR     100              0          0          0          1                    
渠道1              IRREGULAR    断面3              0          0          0          1                    
渠道4              CIRCULAR     10               0          0          0          1                    
渠道5              TRAPEZOIDAL  10               20         0.5        0.5        1                    
渠道6              TRAPEZOIDAL  10               20         0.5        0.5        1                    
渠道3              TRAPEZOIDAL  10               100        0.5        0.5        1                    
渠道7              TRAPEZOIDAL  10               100        0.5        0.5        1                    

[TRANSECTS]
;;Transect Data in HEC-2 format
;
NC 0.01     0.01     0.01    
X1 断面2               21       8.0      15.0     0.0      0.0      0        0.0      0.0     
GR 316.48   1.0      295.0    2.0      316.92   3.0      316.83   4.0      314.49   5.0     
GR 311.2    6.0      311.2    7.0      311.2    8.0      311.2    9.0      311.2    10.0    
GR 311.2    11.0     311.2    12.0     311.2    13.0     311.2    14.0     311.2    15.0    
GR 321.55   16.0     327.47   17.0     330.59   18.0     332.22   19.0     334.15   20.0    
GR 335.66   21.0    
;
NC 0.1      0.1      0.1     
X1 断面_12             21       5.0      15.0     0.0      0.0      0        0.0      0.0     
GR 323.51   1.0      321.58   2.0      321.94   3.0      320.87   4.0      319.94   5.0     
GR 318.4    6.0      315.83   7.0      315.72   8.0      314.72   9.0      314.31   10.0    
GR 314.31   11.0     314.31   12.0     314.31   13.0     314.32   14.0     314.32   15.0    
GR 332.86   16.0     345.4    17.0     353.31   18.0     356.31   19.0     355.35   20.0    
GR 354.7    21.0    
;
NC 0.01     0.01     0.01    
X1 断面1               9        3.0      8.0      0.0      0.0      0        0.0      0.0     
GR 8.0      1.0      6.0      2.0      4.0      3.0      1.0      4.0      2.0      5.0     
GR 3.0      6.0      4.0      7.0      4.0      8.0      9.0      11.0    
;
NC 0.1      0.1      0.1     
X1 断面3               21       5.0      15.0     0.0      0.0      0        0.0      0.0     
GR 326.59   1.0      327.78   2.0      325.97   3.0      318.5    4.0      310.75   5.0     
GR 310.54   6.0      310.84   7.0      310.68   8.0      310.4    9.0      300.52   10.0    
GR 300.57   11.0     300.62   12.0     302.75   13.0     306.43   14.0     309.0    15.0    
GR 315.96   16.0     316.43   17.0     320.92   18.0     320.96   19.0     320.58   20.0    
GR 321.87   21.0    

[INFLOWS]
;;节点           Inflow           Time Series      Type     Funits   Fscale   Baseline Pattern
;;-------------- ---------------- ---------------- -------- -------- -------- -------- --------
节点1              FLOW             时间序列1            FLOW     1.0      1.0      2       

[TIMESERIES]
;;时间序列    Date       Time       Value     
;;-------------- ---------- ---------- ----------
时间1                         00:00      2         
时间1                         01:00      4         
时间1                         02:00      30        
时间1                         03:00      0         
时间1                         04:00      0         
时间1                         05:00      5         
时间1                         06:00      0         
;
时间序列1                       12:00      123       
时间序列1                       13:00      423       
时间序列1                       14:00      123       

[REPORT]
;;报告选项
INPUT      NO
CONTROLS   NO
SUBCATCHMENTS ALL
NODES ALL
LINKS ALL

[TAGS]

[MAP]
DIMENSIONS 0.000 0.000 10000.000 10000.000
Units      None

[COORDINATES]
;;Node           X-Coord            Y-Coord           
;;-------------- ------------------ ------------------
节点3              380998.732         3272685.557       
节点4              380433.375         3269518.098       
节点5              374364.831         3273146.986       
节点6              375898.004         3269914.642       
节点7              378066.898         3270049.761       
节点2              379997.376         3275153.079       
节点1              379456.946         3276407.675       
出口1              380464.572         3266699.414       

[VERTICES]
;;Link           X-Coord            Y-Coord           
;;-------------- ------------------ ------------------


[PROFILES]
;;名称           Links     
;;-------------- ----------
"                " 管道_1743666474738 渠道1 管道_1743558834052
