

;;____________________________________________________________________________________________________
[TITLE]
;;工程标题/注释

;;____________________________________________________________________________________________________
[OPTIONS]
FLOW_UNITS           CMS
INFILTRATION         HORTON
FLOW_ROUTING         DYNWAVE
LINK_OFFSETS         DEPTH
MIN_SLOPE            0.0001
ALLOW_PONDING        NO
SKIP_STEADY_STATE    NO
START_DATE           05/20/2025
START_TIME           00:00:00
REPORT_START_DATE    05/20/2025
REPORT_START_TIME    00:00:00
END_DATE             05/25/2025
END_TIME             00:00:00
SWEEP_START          1/1
SWEEP_END            12/31
DRY_DAYS             0
REPORT_STEP          01:00:00
WET_STEP             00:05:00
DRY_STEP             01:00:00
ROUTING_STEP         0:00:30
INERTIAL_DAMPING     PARTIAL
NORMAL_FLOW_LIMITED  BOTH
FORCE_MAIN_EQUATION  H-W
VARIABLE_STEP        0.75
LENGTHENING_STEP     0
MIN_SURFAREA         0
MAX_TRIALS           0
HEAD_TOLERANCE       0
SYS_FLOW_TOL         5
LAT_FLOW_TOL         5
MINIMUM_STEP         0.5
THREADS              1

;;____________________________________________________________________________________________________
[EVAPORATION]
;;蒸发数据      参数
;;-------------- ----------------
CONSTANT         0.0
DRY_ONLY         NO

;;____________________________________________________________________________________________________
[RAINGAGES]
雨量1 INTENSITY 1:00 1 TIMESERIES RAINGAGE_雨量1

;;____________________________________________________________________________________________________
[SUBCATCHMENTS]
S1 雨量1 J2 100 25 600 0.5 0

;;____________________________________________________________________________________________________
[SUBAREAS]
S1 0.01 0.1 1 1 25 OUTLET 100

;;____________________________________________________________________________________________________
[INFILTRATION]
S1 3 0.5 4 7 0

;;____________________________________________________________________________________________________
[JUNCTIONS]
WuYouSi 348 5 0 0 0
MaoTan 397 5 0 0 0
J2 393 5 0 0 0
J3 385 5 0 0 0
J4 378 5 0 0 0
J5 374 5 0 0 0
J6 370 5 0 0 0
J7 369 5 0 0 0
J8 365 5 0 0 0
J9 363 5 0 0 0
J10 358 5 0 0 0
J12 377 5 0 0 0
J13 373 5 0 0 0
J14 357 5 0 0 0
HanYang 374 5 0 0 0
J15 373 5 0 0 0
J16 370 5 0 0 0
J17 369 5 0 0 0
J18 368 5 0 0 0
J19 367 5 0 0 0
J20 365 5 0 0 0
J21 364 5 0 0 0
J22 363 5 0 0 0
J23 362 5 0 0 0
J24 361 5 0 0 0
J25 360 5 0 0 0
J26 359 5 0 0 0
J27 358 5 0 0 0
J28 357 5 0 0 0
J29 355 5 0 0 0
J30 354 5 0 0 0
J31 353 5 0 0 0
J32 352 5 0 0 0
J33 351 5 0 0 0
J34 350 5 0 0 0
J35 349 5 0 0 0
J36 347 5 0 0 0
J37 344 5 0 0 0
J38 342 5 0 0 0
J39 339 5 0 0 0
J40 337 5 0 0 0
J41 336 5 0 0 0
J42 335 5 0 0 0
J43 332 5 0 0 0
J44 328 5 0 0 0
J45 327 5 0 0 0
J46 326 5 0 0 0
J11 384 5 0 0 0
J1 400 5 0 0 0

;;____________________________________________________________________________________________________
[OUTFALLS]
QianWei 325 FREE NO

;;____________________________________________________________________________________________________
[CONDUITS]
C1 J46 QianWei 4180.494 0.015 0 0 0
C2 J44 J45 2647.369 0.015 0 0 0
C3 J35 WuYouSi 1979.283 0.015 0 0 0
C4 J33 J34 1904.876 0.015 0 0 0
C5 J32 J33 2718.479 0.015 0 0 0
C6 J29 J30 1221.219 0.015 0 0 0
C7 J45 J46 3362.809 0.015 0 0 0
C8 J43 J44 4769.839 0.015 0 0 0
C9 J42 J43 3589.784 0.015 0 0 0
C10 J41 J42 931.0298 0.015 0 0 0
C11 J40 J41 2396.985 0.015 0 0 0
C12 J39 J40 2692.059 0.015 0 0 0
C13 J38 J39 3185.148 0.015 0 0 0
C14 J37 J38 3064.088 0.015 0 0 0
C15 J36 J37 3608.365 0.015 0 0 0
C16 WuYouSi J36 6118.022 0.015 0 0 0
C17 J34 J35 3141.675 0.015 0 0 0
C18 J31 J32 2879.998 0.015 0 0 0
C19 J30 J31 1686.873 0.015 0 0 0
C20 J28 J29 2032.338 0.015 0 0 0
C21 J17 J18 1007.645 0.015 0 0 0
C22 J16 J17 2314.704 0.015 0 0 0
C23 J15 J16 1642.715 0.015 0 0 0
C24 HanYang J15 942.4726 0.015 0 0 0
C25 J18 J19 1597.176 0.015 0 0 0
C26 J19 J20 997.7942 0.015 0 0 0
C27 J20 J21 1060.503 0.015 0 0 0
C28 J21 J22 1262.283 0.015 0 0 0
C29 J22 J23 859.3375 0.015 0 0 0
C30 J23 J24 1715.069 0.015 0 0 0
C31 J24 J25 2938.043 0.015 0 0 0
C32 J25 J26 1065.728 0.015 0 0 0
C33 J26 J27 1359.879 0.015 0 0 0
C34 J27 J28 2730.74 0.015 0 0 0
C35 J14 WuYouSi 3809.408 0.015 0 0 0
C36 J9 J10 2676.126 0.015 0 0 0
C37 J8 J9 1773.536 0.015 0 0 0
C38 J5 J6 2005.165 0.015 0 0 0
C39 J3 J4 3641.906 0.015 0 0 0
C40 J2 J3 3216.267 0.015 0 0 0
C41 MaoTan J1 918.0591 0.015 0 0 0
C42 J10 J14 909.5425 0.015 0 0 0
C43 J7 J8 1432.805 0.015 0 0 0
C44 J6 J7 1460.785 0.015 0 0 0
C45 J4 J5 3638.521 0.015 0 0 0
C46 J1 J2 2694.388 0.015 0 0 0
C47 J13 J10 4087.442 0.015 0 0 0
C48 J12 J13 3845.21 0.015 0 0 0
C49 J11 J12 2561.72 0.015 0 0 0


;;____________________________________________________________________________________________________
[XSECTIONS]
C1 IRREGULAR CS1 1 1 1
C2 IRREGULAR CS3 1 1 1
C3 IRREGULAR CS13 1 1 1
C4 IRREGULAR CS15 1 1 1
C5 IRREGULAR CS16 1 1 1
C6 IRREGULAR CS19 1 1 1
C7 IRREGULAR CS2 1 1 1
C8 IRREGULAR CS4 1 1 1
C9 IRREGULAR CS5 1 1 1
C10 IRREGULAR CS6 1 1 1
C11 IRREGULAR CS7 1 1 1
C12 IRREGULAR CS8 1 1 1
C13 IRREGULAR CS9 1 1 1
C14 IRREGULAR CS10 1 1 1
C15 IRREGULAR CS11 1 1 1
C16 IRREGULAR CS12 1 1 1
C17 IRREGULAR CS14 1 1 1
C18 IRREGULAR CS17 1 1 1
C19 IRREGULAR CS18 1 1 1
C20 IRREGULAR CS20 1 1 1
C21 IRREGULAR CS31 1 1 1
C22 IRREGULAR CS32 1 1 1
C23 IRREGULAR CS33 1 1 1
C24 IRREGULAR CS34 1 1 1
C25 IRREGULAR CS30 1 1 1
C26 IRREGULAR CS29 1 1 1
C27 IRREGULAR CS28 1 1 1
C28 IRREGULAR CS27 1 1 1
C29 IRREGULAR CS26 1 1 1
C30 IRREGULAR CS25 1 1 1
C31 IRREGULAR CS24 1 1 1
C32 IRREGULAR CS23 1 1 1
C33 IRREGULAR CS22 1 1 1
C34 IRREGULAR CS21 1 1 1
C35 IRREGULAR CS35 1 1 1
C36 IRREGULAR CS40 1 1 1
C37 IRREGULAR CS41 1 1 1
C38 IRREGULAR CS44 1 1 1
C39 IRREGULAR CS46 1 1 1
C40 IRREGULAR CS47 1 1 1
C41 IRREGULAR CS49 1 1 1
C42 IRREGULAR CS36 1 1 1
C43 IRREGULAR CS42 1 1 1
C44 IRREGULAR CS43 1 1 1
C45 IRREGULAR CS45 1 1 1
C46 IRREGULAR CS48 1 1 1
C47 IRREGULAR CS37 1 1 1
C48 IRREGULAR CS38 1 1 1
C49 IRREGULAR CS39 1 1 1


;;____________________________________________________________________________________________________
[TRANSECTS]
NC 0.035 0.035 0.03
X1 CS1 106 100.0 620.0 0 0 0 0.0 0.0 0.0
GR 392.0 0.0
GR 392.0 10.0
GR 386.0 20.0
GR 386.0 30.0
GR 386.0 40.0
GR 373.0 50.0
GR 373.0 60.0
GR 365.0 70.0
GR 346.0 80.0
GR 346.0 90.0
GR 346.0 100.0
GR 346.0 110.0
GR 336.0 120.0
GR 336.0 130.0
GR 336.0 140.0
GR 326.0 150.0
GR 326.0 160.0
GR 326.0 170.0
GR 326.0 180.0
GR 326.0 190.0
GR 326.0 200.0
GR 326.0 210.0
GR 326.0 220.0
GR 326.0 230.0
GR 326.0 240.0
GR 326.0 250.0
GR 326.0 260.0
GR 326.0 270.0
GR 326.0 280.0
GR 326.0 290.0
GR 326.0 300.0
GR 326.0 310.0
GR 326.0 320.0
GR 326.0 330.0
GR 327.0 340.0
GR 327.0 350.0
GR 327.0 360.0
GR 325.0 370.0
GR 325.0 380.0
GR 325.0 390.0
GR 327.0 400.0
GR 327.0 410.0
GR 327.0 420.0
GR 327.0 430.0
GR 327.0 440.0
GR 327.0 450.0
GR 326.0 460.0
GR 326.0 470.0
GR 326.0 480.0
GR 326.0 490.0
GR 326.0 500.0
GR 326.0 510.0
GR 326.0 520.0
GR 326.0 530.0
GR 326.0 540.0
GR 326.0 550.0
GR 326.0 560.0
GR 326.0 570.0
GR 326.0 580.0
GR 326.0 590.0
GR 326.0 600.0
GR 335.0 610.0
GR 337.0 620.0
GR 337.0 630.0
GR 337.0 640.0
GR 337.0 650.0
GR 337.0 660.0
GR 337.0 670.0
GR 337.0 680.0
GR 336.0 690.0
GR 336.0 700.0
GR 336.0 710.0
GR 337.0 720.0
GR 337.0 730.0
GR 337.0 740.0
GR 337.0 750.0
GR 337.0 760.0
GR 337.0 770.0
GR 336.0 780.0
GR 336.0 790.0
GR 336.0 800.0
GR 336.0 810.0
GR 338.0 820.0
GR 338.0 830.0
GR 338.0 840.0
GR 341.0 850.0
GR 341.0 860.0
GR 341.0 870.0
GR 340.0 880.0
GR 340.0 890.0
GR 340.0 900.0
GR 337.0 910.0
GR 337.0 920.0
GR 336.0 930.0
GR 333.0 940.0
GR 333.0 950.0
GR 333.0 960.0
GR 332.0 970.0
GR 332.0 980.0
GR 332.0 990.0
GR 332.0 1000.0
GR 332.0 1010.0
GR 332.0 1020.0
GR 332.0 1030.0
GR 332.0 1040.0
GR 332.0 1049.2075857413538


NC 0.035 0.035 0.03
X1 CS3 99 0.0 660.0 0 0 0 0.0 0.0 0.0
GR 339.0 0.0
GR 339.0 10.0
GR 339.0 20.0
GR 339.0 30.0
GR 339.0 40.0
GR 339.0 50.0
GR 337.0 60.0
GR 337.0 70.0
GR 337.0 80.0
GR 333.0 90.0
GR 333.0 100.0
GR 333.0 110.0
GR 333.0 120.0
GR 330.0 130.0
GR 330.0 140.0
GR 330.0 150.0
GR 330.0 160.0
GR 330.0 170.0
GR 330.0 180.0
GR 330.0 190.0
GR 330.0 200.0
GR 330.0 210.0
GR 330.0 220.0
GR 330.0 230.0
GR 330.0 240.0
GR 330.0 250.0
GR 330.0 260.0
GR 330.0 270.0
GR 330.0 280.0
GR 330.0 290.0
GR 330.0 300.0
GR 330.0 310.0
GR 330.0 320.0
GR 330.0 330.0
GR 330.0 340.0
GR 330.0 350.0
GR 330.0 360.0
GR 330.0 370.0
GR 330.0 380.0
GR 330.0 390.0
GR 330.0 400.0
GR 330.0 410.0
GR 331.0 420.0
GR 331.0 430.0
GR 331.0 440.0
GR 331.0 450.0
GR 331.0 460.0
GR 328.0 470.0
GR 328.0 480.0
GR 328.0 490.0
GR 328.0 500.0
GR 327.0 510.0
GR 327.0 520.0
GR 327.0 530.0
GR 328.0 540.0
GR 328.0 550.0
GR 328.0 560.0
GR 328.0 570.0
GR 331.0 580.0
GR 331.0 590.0
GR 331.0 600.0
GR 334.0 610.0
GR 335.0 620.0
GR 335.0 630.0
GR 335.0 640.0
GR 335.0 650.0
GR 341.0 660.0
GR 341.0 670.0
GR 341.0 680.0
GR 341.0 690.0
GR 341.0 700.0
GR 344.0 710.0
GR 344.0 720.0
GR 344.0 730.0
GR 344.0 740.0
GR 346.0 750.0
GR 346.0 760.0
GR 344.0 770.0
GR 344.0 780.0
GR 344.0 790.0
GR 342.0 800.0
GR 342.0 810.0
GR 342.0 820.0
GR 342.0 830.0
GR 340.0 840.0
GR 340.0 850.0
GR 340.0 860.0
GR 340.0 870.0
GR 336.0 880.0
GR 336.0 890.0
GR 333.0 900.0
GR 333.0 910.0
GR 335.0 920.0
GR 335.0 930.0
GR 338.0 940.0
GR 338.0 950.0
GR 344.0 960.0
GR 344.0 970.0
GR 344.0 979.9937422790808


NC 0.035 0.035 0.03
X1 CS13 48 40.0 462.6187317441964 0 0 0 0.0 0.0 0.0
GR 388.0 0.0
GR 388.0 10.0
GR 367.0 20.0
GR 367.0 30.0
GR 367.0 40.0
GR 354.0 50.0
GR 354.0 60.0
GR 354.0 70.0
GR 350.0 80.0
GR 350.0 90.0
GR 350.0 100.0
GR 348.0 110.0
GR 348.0 120.0
GR 348.0 130.0
GR 349.0 140.0
GR 349.0 150.0
GR 349.0 160.0
GR 348.0 170.0
GR 348.0 180.0
GR 348.0 190.0
GR 348.0 200.0
GR 348.0 210.0
GR 348.0 220.0
GR 348.0 230.0
GR 348.0 240.0
GR 348.0 250.0
GR 348.0 260.0
GR 348.0 270.0
GR 348.0 280.0
GR 348.0 290.0
GR 348.0 300.0
GR 348.0 310.0
GR 348.0 320.0
GR 348.0 330.0
GR 348.0 340.0
GR 348.0 350.0
GR 348.0 360.0
GR 348.0 370.0
GR 348.0 380.0
GR 348.0 390.0
GR 348.0 400.0
GR 352.0 410.0
GR 352.0 420.0
GR 352.0 430.0
GR 357.0 440.0
GR 357.0 450.0
GR 357.0 460.0
GR 364.0 462.6187317441964


NC 0.035 0.035 0.03
X1 CS15 53 30.0 460.0 0 0 0 0.0 0.0 0.0
GR 360.0 0.0
GR 360.0 10.0
GR 360.0 20.0
GR 360.0 30.0
GR 350.0 40.0
GR 350.0 50.0
GR 350.0 60.0
GR 350.0 70.0
GR 350.0 80.0
GR 350.0 90.0
GR 350.0 100.0
GR 350.0 110.0
GR 350.0 120.0
GR 350.0 130.0
GR 350.0 140.0
GR 350.0 150.0
GR 350.0 160.0
GR 350.0 170.0
GR 350.0 180.0
GR 350.0 190.0
GR 350.0 200.0
GR 350.0 210.0
GR 350.0 220.0
GR 350.0 230.0
GR 350.0 240.0
GR 350.0 250.0
GR 350.0 260.0
GR 350.0 270.0
GR 350.0 280.0
GR 350.0 290.0
GR 350.0 300.0
GR 350.0 310.0
GR 350.0 320.0
GR 350.0 330.0
GR 350.0 340.0
GR 350.0 350.0
GR 350.0 360.0
GR 350.0 370.0
GR 350.0 380.0
GR 350.0 390.0
GR 350.0 400.0
GR 350.0 410.0
GR 350.0 420.0
GR 350.0 430.0
GR 350.0 440.0
GR 350.0 450.0
GR 350.0 460.0
GR 350.0 470.0
GR 350.0 480.0
GR 357.0 490.0
GR 357.0 500.0
GR 357.0 510.0
GR 357.0 513.5779075679666


NC 0.035 0.035 0.03
X1 CS16 59 70.0 510.0 0 0 0 0.0 0.0 0.0
GR 357.0 0.0
GR 356.0 10.0
GR 356.0 20.0
GR 352.0 30.0
GR 352.0 40.0
GR 352.0 50.0
GR 352.0 60.0
GR 352.0 70.0
GR 352.0 80.0
GR 351.0 90.0
GR 351.0 100.0
GR 351.0 110.0
GR 351.0 120.0
GR 351.0 130.0
GR 351.0 140.0
GR 351.0 150.0
GR 351.0 160.0
GR 351.0 170.0
GR 351.0 180.0
GR 351.0 190.0
GR 351.0 200.0
GR 351.0 210.0
GR 351.0 220.0
GR 351.0 230.0
GR 351.0 240.0
GR 351.0 250.0
GR 351.0 260.0
GR 351.0 270.0
GR 351.0 280.0
GR 351.0 290.0
GR 351.0 300.0
GR 351.0 310.0
GR 351.0 320.0
GR 351.0 330.0
GR 351.0 340.0
GR 351.0 350.0
GR 351.0 360.0
GR 351.0 370.0
GR 351.0 380.0
GR 351.0 390.0
GR 351.0 400.0
GR 351.0 410.0
GR 351.0 420.0
GR 351.0 430.0
GR 351.0 440.0
GR 351.0 450.0
GR 351.0 460.0
GR 351.0 470.0
GR 351.0 480.0
GR 351.0 490.0
GR 351.0 500.0
GR 352.0 510.0
GR 352.0 520.0
GR 352.0 530.0
GR 352.0 540.0
GR 353.0 550.0
GR 353.0 560.0
GR 353.0 570.0
GR 356.0 573.6283786658421


NC 0.035 0.035 0.03
X1 CS19 73 240.0 700.0 0 0 0 0.0 0.0 0.0
GR 356.0 0.0
GR 357.0 10.0
GR 357.0 20.0
GR 357.0 30.0
GR 357.0 40.0
GR 357.0 50.0
GR 357.0 60.0
GR 357.0 70.0
GR 357.0 80.0
GR 357.0 90.0
GR 358.0 100.0
GR 358.0 110.0
GR 358.0 120.0
GR 358.0 130.0
GR 358.0 140.0
GR 358.0 150.0
GR 358.0 160.0
GR 359.0 170.0
GR 359.0 180.0
GR 358.0 190.0
GR 358.0 200.0
GR 358.0 210.0
GR 357.0 220.0
GR 357.0 230.0
GR 357.0 240.0
GR 356.0 250.0
GR 356.0 260.0
GR 356.0 270.0
GR 356.0 280.0
GR 354.0 290.0
GR 354.0 300.0
GR 354.0 310.0
GR 355.0 320.0
GR 355.0 330.0
GR 355.0 340.0
GR 354.0 350.0
GR 354.0 360.0
GR 354.0 370.0
GR 354.0 380.0
GR 354.0 390.0
GR 354.0 400.0
GR 354.0 410.0
GR 354.0 420.0
GR 354.0 430.0
GR 354.0 440.0
GR 354.0 450.0
GR 354.0 460.0
GR 354.0 470.0
GR 354.0 480.0
GR 354.0 490.0
GR 354.0 500.0
GR 354.0 510.0
GR 354.0 520.0
GR 354.0 530.0
GR 354.0 540.0
GR 354.0 550.0
GR 358.0 560.0
GR 358.0 570.0
GR 358.0 580.0
GR 357.0 590.0
GR 357.0 600.0
GR 357.0 610.0
GR 355.0 620.0
GR 355.0 630.0
GR 355.0 640.0
GR 355.0 650.0
GR 355.0 660.0
GR 355.0 670.0
GR 357.0 680.0
GR 357.0 690.0
GR 357.0 700.0
GR 357.0 710.0
GR 358.0 718.4386621073847


NC 0.035 0.035 0.03
X1 CS2 54 0.0 460.0 0 0 0 0.0 0.0 0.0
GR 346.0 0.0
GR 342.0 10.0
GR 342.0 20.0
GR 342.0 30.0
GR 337.0 40.0
GR 337.0 50.0
GR 332.0 60.0
GR 332.0 70.0
GR 326.0 80.0
GR 326.0 90.0
GR 326.0 100.0
GR 326.0 110.0
GR 326.0 120.0
GR 326.0 130.0
GR 326.0 140.0
GR 326.0 150.0
GR 326.0 160.0
GR 326.0 170.0
GR 326.0 180.0
GR 326.0 190.0
GR 326.0 200.0
GR 326.0 210.0
GR 326.0 220.0
GR 326.0 230.0
GR 326.0 240.0
GR 326.0 250.0
GR 326.0 260.0
GR 326.0 270.0
GR 326.0 280.0
GR 326.0 290.0
GR 326.0 300.0
GR 326.0 310.0
GR 326.0 320.0
GR 326.0 330.0
GR 326.0 340.0
GR 326.0 350.0
GR 326.0 360.0
GR 326.0 370.0
GR 326.0 380.0
GR 326.0 390.0
GR 326.0 400.0
GR 326.0 410.0
GR 327.0 420.0
GR 327.0 430.0
GR 327.0 440.0
GR 327.0 450.0
GR 348.0 460.0
GR 358.0 470.0
GR 358.0 480.0
GR 358.0 490.0
GR 354.0 500.0
GR 375.0 510.0
GR 375.0 520.0
GR 375.0 526.7825090706262


NC 0.035 0.035 0.03
X1 CS4 267 50.0 2560.0 0 0 0 0.0 0.0 0.0
GR 348.0 0.0
GR 347.0 10.0
GR 347.0 20.0
GR 348.0 30.0
GR 348.0 40.0
GR 348.0 50.0
GR 345.0 60.0
GR 345.0 70.0
GR 345.0 80.0
GR 345.0 90.0
GR 337.0 100.0
GR 337.0 110.0
GR 337.0 120.0
GR 329.0 130.0
GR 331.0 140.0
GR 331.0 150.0
GR 328.0 160.0
GR 328.0 170.0
GR 328.0 180.0
GR 328.0 190.0
GR 328.0 200.0
GR 328.0 210.0
GR 328.0 220.0
GR 328.0 230.0
GR 328.0 240.0
GR 328.0 250.0
GR 328.0 260.0
GR 328.0 270.0
GR 328.0 280.0
GR 328.0 290.0
GR 328.0 300.0
GR 328.0 310.0
GR 328.0 320.0
GR 328.0 330.0
GR 328.0 340.0
GR 328.0 350.0
GR 336.0 360.0
GR 336.0 370.0
GR 336.0 380.0
GR 336.0 390.0
GR 336.0 400.0
GR 336.0 410.0
GR 336.0 420.0
GR 335.0 430.0
GR 335.0 440.0
GR 334.0 450.0
GR 335.0 460.0
GR 335.0 470.0
GR 335.0 480.0
GR 335.0 490.0
GR 334.0 500.0
GR 333.0 510.0
GR 333.0 520.0
GR 332.0 530.0
GR 332.0 540.0
GR 332.0 550.0
GR 334.0 560.0
GR 335.0 570.0
GR 335.0 580.0
GR 335.0 590.0
GR 336.0 600.0
GR 336.0 610.0
GR 336.0 620.0
GR 338.0 630.0
GR 338.0 640.0
GR 338.0 650.0
GR 340.0 660.0
GR 340.0 670.0
GR 340.0 680.0
GR 340.0 690.0
GR 341.0 700.0
GR 341.0 710.0
GR 341.0 720.0
GR 344.0 730.0
GR 344.0 740.0
GR 344.0 750.0
GR 345.0 760.0
GR 345.0 770.0
GR 345.0 780.0
GR 345.0 790.0
GR 345.0 800.0
GR 345.0 810.0
GR 343.0 820.0
GR 342.0 830.0
GR 342.0 840.0
GR 342.0 850.0
GR 341.0 860.0
GR 341.0 870.0
GR 338.0 880.0
GR 338.0 890.0
GR 337.0 900.0
GR 337.0 910.0
GR 337.0 920.0
GR 337.0 930.0
GR 337.0 940.0
GR 337.0 950.0
GR 337.0 960.0
GR 338.0 970.0
GR 338.0 980.0
GR 338.0 990.0
GR 338.0 1000.0
GR 340.0 1010.0
GR 340.0 1020.0
GR 338.0 1030.0
GR 338.0 1040.0
GR 338.0 1050.0
GR 338.0 1060.0
GR 337.0 1070.0
GR 337.0 1080.0
GR 337.0 1090.0
GR 337.0 1100.0
GR 337.0 1110.0
GR 337.0 1120.0
GR 342.0 1130.0
GR 342.0 1140.0
GR 342.0 1150.0
GR 342.0 1160.0
GR 342.0 1170.0
GR 342.0 1180.0
GR 343.0 1190.0
GR 343.0 1200.0
GR 343.0 1210.0
GR 343.0 1220.0
GR 342.0 1230.0
GR 342.0 1240.0
GR 342.0 1250.0
GR 343.0 1260.0
GR 343.0 1270.0
GR 343.0 1280.0
GR 343.0 1290.0
GR 343.0 1300.0
GR 343.0 1310.0
GR 341.0 1320.0
GR 341.0 1330.0
GR 341.0 1340.0
GR 341.0 1350.0
GR 341.0 1360.0
GR 341.0 1370.0
GR 342.0 1380.0
GR 342.0 1390.0
GR 341.0 1400.0
GR 341.0 1410.0
GR 341.0 1420.0
GR 341.0 1430.0
GR 340.0 1440.0
GR 340.0 1450.0
GR 340.0 1460.0
GR 340.0 1470.0
GR 340.0 1480.0
GR 340.0 1490.0
GR 342.0 1500.0
GR 342.0 1510.0
GR 342.0 1520.0
GR 343.0 1530.0
GR 343.0 1540.0
GR 343.0 1550.0
GR 343.0 1560.0
GR 342.0 1570.0
GR 342.0 1580.0
GR 342.0 1590.0
GR 342.0 1600.0
GR 342.0 1610.0
GR 342.0 1620.0
GR 339.0 1630.0
GR 339.0 1640.0
GR 339.0 1650.0
GR 339.0 1660.0
GR 338.0 1670.0
GR 338.0 1680.0
GR 337.0 1690.0
GR 336.0 1700.0
GR 336.0 1710.0
GR 336.0 1720.0
GR 335.0 1730.0
GR 335.0 1740.0
GR 335.0 1750.0
GR 335.0 1760.0
GR 334.0 1770.0
GR 334.0 1780.0
GR 334.0 1790.0
GR 335.0 1800.0
GR 335.0 1810.0
GR 335.0 1820.0
GR 335.0 1830.0
GR 336.0 1840.0
GR 336.0 1850.0
GR 336.0 1860.0
GR 335.0 1870.0
GR 336.0 1880.0
GR 336.0 1890.0
GR 333.0 1900.0
GR 333.0 1910.0
GR 333.0 1920.0
GR 333.0 1930.0
GR 335.0 1940.0
GR 335.0 1950.0
GR 335.0 1960.0
GR 336.0 1970.0
GR 336.0 1980.0
GR 336.0 1990.0
GR 336.0 2000.0
GR 336.0 2010.0
GR 336.0 2020.0
GR 336.0 2030.0
GR 334.0 2040.0
GR 334.0 2050.0
GR 334.0 2060.0
GR 333.0 2070.0
GR 333.0 2080.0
GR 333.0 2090.0
GR 334.0 2100.0
GR 334.0 2110.0
GR 334.0 2120.0
GR 333.0 2130.0
GR 333.0 2140.0
GR 333.0 2150.0
GR 333.0 2160.0
GR 333.0 2170.0
GR 333.0 2180.0
GR 332.0 2190.0
GR 332.0 2200.0
GR 332.0 2210.0
GR 332.0 2220.0
GR 332.0 2230.0
GR 331.0 2240.0
GR 331.0 2250.0
GR 331.0 2260.0
GR 331.0 2270.0
GR 331.0 2280.0
GR 331.0 2290.0
GR 331.0 2300.0
GR 331.0 2310.0
GR 331.0 2320.0
GR 331.0 2330.0
GR 331.0 2340.0
GR 331.0 2350.0
GR 331.0 2360.0
GR 331.0 2370.0
GR 331.0 2380.0
GR 331.0 2390.0
GR 331.0 2400.0
GR 331.0 2410.0
GR 331.0 2420.0
GR 331.0 2430.0
GR 331.0 2440.0
GR 331.0 2450.0
GR 331.0 2460.0
GR 334.0 2470.0
GR 334.0 2480.0
GR 334.0 2490.0
GR 336.0 2500.0
GR 336.0 2510.0
GR 336.0 2520.0
GR 336.0 2530.0
GR 339.0 2540.0
GR 339.0 2550.0
GR 340.0 2560.0
GR 349.0 2570.0
GR 349.0 2580.0
GR 349.0 2590.0
GR 360.0 2600.0
GR 360.0 2610.0
GR 365.0 2620.0
GR 365.0 2630.0
GR 371.0 2640.0
GR 371.0 2650.0
GR 371.0 2650.618769970533


NC 0.035 0.035 0.03
X1 CS5 98 280.0 920.0 0 0 0 0.0 0.0 0.0
GR 361.0 0.0
GR 361.0 10.0
GR 361.0 20.0
GR 361.0 30.0
GR 361.0 40.0
GR 361.0 50.0
GR 359.0 60.0
GR 359.0 70.0
GR 359.0 80.0
GR 354.0 90.0
GR 354.0 100.0
GR 354.0 110.0
GR 349.0 120.0
GR 349.0 130.0
GR 349.0 140.0
GR 343.0 150.0
GR 339.0 160.0
GR 339.0 170.0
GR 339.0 180.0
GR 340.0 190.0
GR 340.0 200.0
GR 340.0 210.0
GR 341.0 220.0
GR 340.0 230.0
GR 340.0 240.0
GR 341.0 250.0
GR 341.0 260.0
GR 341.0 270.0
GR 341.0 280.0
GR 341.0 290.0
GR 340.0 300.0
GR 340.0 310.0
GR 339.0 320.0
GR 339.0 330.0
GR 339.0 340.0
GR 338.0 350.0
GR 338.0 360.0
GR 337.0 370.0
GR 332.0 380.0
GR 332.0 390.0
GR 332.0 400.0
GR 332.0 410.0
GR 332.0 420.0
GR 332.0 430.0
GR 332.0 440.0
GR 332.0 450.0
GR 332.0 460.0
GR 332.0 470.0
GR 332.0 480.0
GR 332.0 490.0
GR 332.0 500.0
GR 332.0 510.0
GR 332.0 520.0
GR 332.0 530.0
GR 332.0 540.0
GR 332.0 550.0
GR 332.0 560.0
GR 332.0 570.0
GR 332.0 580.0
GR 332.0 590.0
GR 332.0 600.0
GR 332.0 610.0
GR 332.0 620.0
GR 332.0 630.0
GR 332.0 640.0
GR 332.0 650.0
GR 332.0 660.0
GR 332.0 670.0
GR 332.0 680.0
GR 332.0 690.0
GR 332.0 700.0
GR 332.0 710.0
GR 332.0 720.0
GR 332.0 730.0
GR 332.0 740.0
GR 332.0 750.0
GR 332.0 760.0
GR 332.0 770.0
GR 332.0 780.0
GR 332.0 790.0
GR 332.0 800.0
GR 332.0 810.0
GR 332.0 820.0
GR 332.0 830.0
GR 332.0 840.0
GR 332.0 850.0
GR 332.0 860.0
GR 332.0 870.0
GR 332.0 880.0
GR 332.0 890.0
GR 332.0 900.0
GR 332.0 910.0
GR 332.0 920.0
GR 387.0 930.0
GR 387.0 940.0
GR 387.0 950.0
GR 387.0 960.0
GR 387.0 964.7458573834645


NC 0.035 0.035 0.03
X1 CS6 61 120.0 510.0 0 0 0 0.0 0.0 0.0
GR 355.0 0.0
GR 355.0 10.0
GR 355.0 20.0
GR 356.0 30.0
GR 356.0 40.0
GR 356.0 50.0
GR 357.0 60.0
GR 359.0 70.0
GR 359.0 80.0
GR 356.0 90.0
GR 356.0 100.0
GR 356.0 110.0
GR 356.0 120.0
GR 335.0 130.0
GR 335.0 140.0
GR 335.0 150.0
GR 335.0 160.0
GR 335.0 170.0
GR 335.0 180.0
GR 335.0 190.0
GR 335.0 200.0
GR 335.0 210.0
GR 335.0 220.0
GR 335.0 230.0
GR 335.0 240.0
GR 335.0 250.0
GR 335.0 260.0
GR 335.0 270.0
GR 335.0 280.0
GR 335.0 290.0
GR 335.0 300.0
GR 335.0 310.0
GR 335.0 320.0
GR 335.0 330.0
GR 335.0 340.0
GR 335.0 350.0
GR 335.0 360.0
GR 335.0 370.0
GR 335.0 380.0
GR 336.0 390.0
GR 336.0 400.0
GR 336.0 410.0
GR 338.0 420.0
GR 338.0 430.0
GR 338.0 440.0
GR 338.0 450.0
GR 339.0 460.0
GR 339.0 470.0
GR 339.0 480.0
GR 339.0 490.0
GR 339.0 500.0
GR 339.0 510.0
GR 340.0 520.0
GR 340.0 530.0
GR 340.0 540.0
GR 340.0 550.0
GR 341.0 560.0
GR 341.0 570.0
GR 341.0 580.0
GR 341.0 590.0
GR 341.0 599.8081660273572


NC 0.035 0.035 0.03
X1 CS7 106 60.0 920.0 0 0 0 0.0 0.0 0.0
GR 347.0 0.0
GR 347.0 10.0
GR 347.0 20.0
GR 344.0 30.0
GR 342.0 40.0
GR 342.0 50.0
GR 342.0 60.0
GR 340.0 70.0
GR 340.0 80.0
GR 339.0 90.0
GR 338.0 100.0
GR 338.0 110.0
GR 338.0 120.0
GR 338.0 130.0
GR 337.0 140.0
GR 337.0 150.0
GR 337.0 160.0
GR 337.0 170.0
GR 337.0 180.0
GR 337.0 190.0
GR 337.0 200.0
GR 337.0 210.0
GR 337.0 220.0
GR 337.0 230.0
GR 337.0 240.0
GR 336.0 250.0
GR 336.0 260.0
GR 336.0 270.0
GR 336.0 280.0
GR 336.0 290.0
GR 336.0 300.0
GR 336.0 310.0
GR 336.0 320.0
GR 336.0 330.0
GR 336.0 340.0
GR 336.0 350.0
GR 336.0 360.0
GR 336.0 370.0
GR 336.0 380.0
GR 336.0 390.0
GR 336.0 400.0
GR 336.0 410.0
GR 336.0 420.0
GR 336.0 430.0
GR 336.0 440.0
GR 336.0 450.0
GR 336.0 460.0
GR 336.0 470.0
GR 336.0 480.0
GR 336.0 490.0
GR 336.0 500.0
GR 338.0 510.0
GR 339.0 520.0
GR 339.0 530.0
GR 339.0 540.0
GR 339.0 550.0
GR 339.0 560.0
GR 339.0 570.0
GR 339.0 580.0
GR 338.0 590.0
GR 338.0 600.0
GR 338.0 610.0
GR 337.0 620.0
GR 337.0 630.0
GR 337.0 640.0
GR 337.0 650.0
GR 336.0 660.0
GR 336.0 670.0
GR 336.0 680.0
GR 336.0 690.0
GR 337.0 700.0
GR 337.0 710.0
GR 338.0 720.0
GR 339.0 730.0
GR 339.0 740.0
GR 339.0 750.0
GR 339.0 760.0
GR 339.0 770.0
GR 339.0 780.0
GR 339.0 790.0
GR 339.0 800.0
GR 339.0 810.0
GR 339.0 820.0
GR 339.0 830.0
GR 339.0 840.0
GR 339.0 850.0
GR 339.0 860.0
GR 340.0 870.0
GR 341.0 880.0
GR 341.0 890.0
GR 341.0 900.0
GR 341.0 910.0
GR 342.0 920.0
GR 342.0 930.0
GR 342.0 940.0
GR 342.0 950.0
GR 343.0 960.0
GR 343.0 970.0
GR 343.0 980.0
GR 344.0 990.0
GR 344.0 1000.0
GR 345.0 1010.0
GR 345.0 1020.0
GR 345.0 1030.0
GR 345.0 1040.0
GR 345.0 1045.246211274801


NC 0.035 0.035 0.03
X1 CS8 66 90.0 570.0 0 0 0 0.0 0.0 0.0
GR 347.0 0.0
GR 347.0 10.0
GR 347.0 20.0
GR 347.0 30.0
GR 346.0 40.0
GR 346.0 50.0
GR 346.0 60.0
GR 343.0 70.0
GR 343.0 80.0
GR 343.0 90.0
GR 341.0 100.0
GR 341.0 110.0
GR 341.0 120.0
GR 338.0 130.0
GR 338.0 140.0
GR 338.0 150.0
GR 338.0 160.0
GR 338.0 170.0
GR 338.0 180.0
GR 338.0 190.0
GR 338.0 200.0
GR 338.0 210.0
GR 338.0 220.0
GR 338.0 230.0
GR 338.0 240.0
GR 338.0 250.0
GR 338.0 260.0
GR 338.0 270.0
GR 338.0 280.0
GR 338.0 290.0
GR 338.0 300.0
GR 337.0 310.0
GR 337.0 320.0
GR 337.0 330.0
GR 337.0 340.0
GR 337.0 350.0
GR 337.0 360.0
GR 337.0 370.0
GR 337.0 380.0
GR 337.0 390.0
GR 337.0 400.0
GR 337.0 410.0
GR 337.0 420.0
GR 337.0 430.0
GR 337.0 440.0
GR 337.0 450.0
GR 337.0 460.0
GR 337.0 470.0
GR 337.0 480.0
GR 337.0 490.0
GR 337.0 500.0
GR 337.0 510.0
GR 337.0 520.0
GR 337.0 530.0
GR 337.0 540.0
GR 337.0 550.0
GR 337.0 560.0
GR 343.0 570.0
GR 343.0 580.0
GR 343.0 590.0
GR 345.0 600.0
GR 345.0 610.0
GR 345.0 620.0
GR 348.0 630.0
GR 348.0 640.0
GR 348.0 641.681127149562


NC 0.035 0.035 0.03
X1 CS9 71 0.0 697.7882265490929 0 0 0 0.0 0.0 0.0
GR 341.0 0.0
GR 339.0 10.0
GR 339.0 20.0
GR 339.0 30.0
GR 341.0 40.0
GR 341.0 50.0
GR 341.0 60.0
GR 341.0 70.0
GR 341.0 80.0
GR 341.0 90.0
GR 341.0 100.0
GR 341.0 110.0
GR 341.0 120.0
GR 343.0 130.0
GR 343.0 140.0
GR 343.0 150.0
GR 343.0 160.0
GR 339.0 170.0
GR 339.0 180.0
GR 339.0 190.0
GR 339.0 200.0
GR 339.0 210.0
GR 339.0 220.0
GR 339.0 230.0
GR 339.0 240.0
GR 339.0 250.0
GR 339.0 260.0
GR 339.0 270.0
GR 339.0 280.0
GR 339.0 290.0
GR 339.0 300.0
GR 339.0 310.0
GR 339.0 320.0
GR 339.0 330.0
GR 339.0 340.0
GR 340.0 350.0
GR 340.0 360.0
GR 340.0 370.0
GR 340.0 380.0
GR 339.0 390.0
GR 339.0 400.0
GR 340.0 410.0
GR 340.0 420.0
GR 340.0 430.0
GR 340.0 440.0
GR 340.0 450.0
GR 340.0 460.0
GR 340.0 470.0
GR 340.0 480.0
GR 340.0 490.0
GR 340.0 500.0
GR 340.0 510.0
GR 340.0 520.0
GR 341.0 530.0
GR 341.0 540.0
GR 341.0 550.0
GR 341.0 560.0
GR 343.0 570.0
GR 343.0 580.0
GR 343.0 590.0
GR 343.0 600.0
GR 349.0 610.0
GR 349.0 620.0
GR 349.0 630.0
GR 349.0 640.0
GR 365.0 650.0
GR 371.0 660.0
GR 371.0 670.0
GR 392.0 680.0
GR 392.0 690.0
GR 393.0 697.7882265490929


NC 0.035 0.035 0.03
X1 CS10 97 200.0 740.0 0 0 0 0.0 0.0 0.0
GR 355.0 0.0
GR 354.0 10.0
GR 354.0 20.0
GR 354.0 30.0
GR 353.0 40.0
GR 353.0 50.0
GR 353.0 60.0
GR 353.0 70.0
GR 353.0 80.0
GR 351.0 90.0
GR 351.0 100.0
GR 351.0 110.0
GR 351.0 120.0
GR 351.0 130.0
GR 351.0 140.0
GR 351.0 150.0
GR 351.0 160.0
GR 351.0 170.0
GR 348.0 180.0
GR 348.0 190.0
GR 348.0 200.0
GR 344.0 210.0
GR 344.0 220.0
GR 344.0 230.0
GR 342.0 240.0
GR 342.0 250.0
GR 342.0 260.0
GR 342.0 270.0
GR 342.0 280.0
GR 342.0 290.0
GR 342.0 300.0
GR 342.0 310.0
GR 342.0 320.0
GR 342.0 330.0
GR 342.0 340.0
GR 342.0 350.0
GR 342.0 360.0
GR 342.0 370.0
GR 342.0 380.0
GR 342.0 390.0
GR 342.0 400.0
GR 342.0 410.0
GR 342.0 420.0
GR 342.0 430.0
GR 342.0 440.0
GR 342.0 450.0
GR 342.0 460.0
GR 342.0 470.0
GR 342.0 480.0
GR 342.0 490.0
GR 342.0 500.0
GR 342.0 510.0
GR 342.0 520.0
GR 342.0 530.0
GR 342.0 540.0
GR 342.0 550.0
GR 342.0 560.0
GR 342.0 570.0
GR 342.0 580.0
GR 342.0 590.0
GR 342.0 600.0
GR 342.0 610.0
GR 342.0 620.0
GR 342.0 630.0
GR 342.0 640.0
GR 342.0 650.0
GR 342.0 660.0
GR 342.0 670.0
GR 342.0 680.0
GR 342.0 690.0
GR 342.0 700.0
GR 347.0 710.0
GR 347.0 720.0
GR 347.0 730.0
GR 348.0 740.0
GR 348.0 750.0
GR 348.0 760.0
GR 350.0 770.0
GR 350.0 780.0
GR 350.0 790.0
GR 350.0 800.0
GR 350.0 810.0
GR 350.0 820.0
GR 350.0 830.0
GR 350.0 840.0
GR 350.0 850.0
GR 351.0 860.0
GR 351.0 870.0
GR 351.0 880.0
GR 350.0 890.0
GR 350.0 900.0
GR 350.0 910.0
GR 350.0 920.0
GR 350.0 930.0
GR 350.0 940.0
GR 351.0 950.0
GR 351.0 957.5903470501324


NC 0.035 0.035 0.03
X1 CS11 237 100.0 2220.0 0 0 0 0.0 0.0 0.0
GR 350.0 0.0
GR 350.0 10.0
GR 350.0 20.0
GR 349.0 30.0
GR 349.0 40.0
GR 349.0 50.0
GR 350.0 60.0
GR 350.0 70.0
GR 350.0 80.0
GR 351.0 90.0
GR 351.0 100.0
GR 351.0 110.0
GR 344.0 120.0
GR 344.0 130.0
GR 344.0 140.0
GR 344.0 150.0
GR 344.0 160.0
GR 344.0 170.0
GR 344.0 180.0
GR 344.0 190.0
GR 344.0 200.0
GR 344.0 210.0
GR 344.0 220.0
GR 344.0 230.0
GR 344.0 240.0
GR 344.0 250.0
GR 344.0 260.0
GR 344.0 270.0
GR 344.0 280.0
GR 344.0 290.0
GR 344.0 300.0
GR 344.0 310.0
GR 344.0 320.0
GR 350.0 330.0
GR 350.0 340.0
GR 350.0 350.0
GR 349.0 360.0
GR 349.0 370.0
GR 349.0 380.0
GR 350.0 390.0
GR 350.0 400.0
GR 350.0 410.0
GR 352.0 420.0
GR 352.0 430.0
GR 352.0 440.0
GR 353.0 450.0
GR 353.0 460.0
GR 353.0 470.0
GR 352.0 480.0
GR 352.0 490.0
GR 352.0 500.0
GR 353.0 510.0
GR 353.0 520.0
GR 353.0 530.0
GR 353.0 540.0
GR 353.0 550.0
GR 353.0 560.0
GR 353.0 570.0
GR 353.0 580.0
GR 353.0 590.0
GR 352.0 600.0
GR 352.0 610.0
GR 352.0 620.0
GR 352.0 630.0
GR 352.0 640.0
GR 352.0 650.0
GR 352.0 660.0
GR 350.0 670.0
GR 350.0 680.0
GR 351.0 690.0
GR 351.0 700.0
GR 351.0 710.0
GR 351.0 720.0
GR 351.0 730.0
GR 351.0 740.0
GR 351.0 750.0
GR 351.0 760.0
GR 351.0 770.0
GR 350.0 780.0
GR 350.0 790.0
GR 350.0 800.0
GR 349.0 810.0
GR 349.0 820.0
GR 349.0 830.0
GR 348.0 840.0
GR 349.0 850.0
GR 349.0 860.0
GR 344.0 870.0
GR 344.0 880.0
GR 344.0 890.0
GR 345.0 900.0
GR 345.0 910.0
GR 345.0 920.0
GR 345.0 930.0
GR 345.0 940.0
GR 345.0 950.0
GR 345.0 960.0
GR 345.0 970.0
GR 345.0 980.0
GR 345.0 990.0
GR 345.0 1000.0
GR 345.0 1010.0
GR 345.0 1020.0
GR 345.0 1030.0
GR 345.0 1040.0
GR 350.0 1050.0
GR 350.0 1060.0
GR 350.0 1070.0
GR 350.0 1080.0
GR 350.0 1090.0
GR 350.0 1100.0
GR 348.0 1110.0
GR 348.0 1120.0
GR 349.0 1130.0
GR 349.0 1140.0
GR 349.0 1150.0
GR 350.0 1160.0
GR 350.0 1170.0
GR 350.0 1180.0
GR 349.0 1190.0
GR 349.0 1200.0
GR 349.0 1210.0
GR 350.0 1220.0
GR 350.0 1230.0
GR 350.0 1240.0
GR 350.0 1250.0
GR 350.0 1260.0
GR 350.0 1270.0
GR 351.0 1280.0
GR 351.0 1290.0
GR 351.0 1300.0
GR 351.0 1310.0
GR 351.0 1320.0
GR 351.0 1330.0
GR 351.0 1340.0
GR 351.0 1350.0
GR 351.0 1360.0
GR 351.0 1370.0
GR 351.0 1380.0
GR 351.0 1390.0
GR 351.0 1400.0
GR 351.0 1410.0
GR 351.0 1420.0
GR 349.0 1430.0
GR 349.0 1440.0
GR 349.0 1450.0
GR 349.0 1460.0
GR 349.0 1470.0
GR 349.0 1480.0
GR 350.0 1490.0
GR 350.0 1500.0
GR 350.0 1510.0
GR 351.0 1520.0
GR 351.0 1530.0
GR 351.0 1540.0
GR 351.0 1550.0
GR 351.0 1560.0
GR 351.0 1570.0
GR 351.0 1580.0
GR 351.0 1590.0
GR 351.0 1600.0
GR 351.0 1610.0
GR 351.0 1620.0
GR 351.0 1630.0
GR 351.0 1640.0
GR 351.0 1650.0
GR 351.0 1660.0
GR 351.0 1670.0
GR 351.0 1680.0
GR 351.0 1690.0
GR 350.0 1700.0
GR 350.0 1710.0
GR 350.0 1720.0
GR 350.0 1730.0
GR 350.0 1740.0
GR 350.0 1750.0
GR 350.0 1760.0
GR 350.0 1770.0
GR 350.0 1780.0
GR 349.0 1790.0
GR 349.0 1800.0
GR 349.0 1810.0
GR 349.0 1820.0
GR 349.0 1830.0
GR 349.0 1840.0
GR 349.0 1850.0
GR 349.0 1860.0
GR 349.0 1870.0
GR 349.0 1880.0
GR 349.0 1890.0
GR 349.0 1900.0
GR 349.0 1910.0
GR 349.0 1920.0
GR 349.0 1930.0
GR 348.0 1940.0
GR 348.0 1950.0
GR 348.0 1960.0
GR 348.0 1970.0
GR 348.0 1980.0
GR 348.0 1990.0
GR 348.0 2000.0
GR 348.0 2010.0
GR 348.0 2020.0
GR 347.0 2030.0
GR 347.0 2040.0
GR 347.0 2050.0
GR 346.0 2060.0
GR 346.0 2070.0
GR 346.0 2080.0
GR 348.0 2090.0
GR 348.0 2100.0
GR 348.0 2110.0
GR 348.0 2120.0
GR 348.0 2130.0
GR 348.0 2140.0
GR 349.0 2150.0
GR 349.0 2160.0
GR 349.0 2170.0
GR 349.0 2180.0
GR 349.0 2190.0
GR 349.0 2200.0
GR 350.0 2210.0
GR 350.0 2220.0
GR 350.0 2230.0
GR 353.0 2240.0
GR 353.0 2250.0
GR 353.0 2260.0
GR 355.0 2270.0
GR 355.0 2280.0
GR 355.0 2290.0
GR 355.0 2300.0
GR 354.0 2310.0
GR 354.0 2320.0
GR 354.0 2330.0
GR 354.0 2340.0
GR 354.0 2350.0
GR 354.0 2353.046431618296


NC 0.035 0.035 0.03
X1 CS12 217 40.0 1760.0 0 0 0 0.0 0.0 0.0
GR 360.0 0.0
GR 360.0 10.0
GR 360.0 20.0
GR 360.0 30.0
GR 359.0 40.0
GR 359.0 50.0
GR 359.0 60.0
GR 358.0 70.0
GR 358.0 80.0
GR 358.0 90.0